# CIF file generated by openbabel 2.4.1, see http://openbabel.sf.net
data_I
_chemical_name_common ''
_cell_length_a 9.45676
_cell_length_b 10.9289
_cell_length_c 22.9999
_cell_angle_alpha 90
_cell_angle_beta 90
_cell_angle_gamma 90
loop_
    _atom_site_label
    _atom_site_type_symbol
    _atom_site_fract_x
    _atom_site_fract_y
    _atom_site_fract_z
    _atom_site_occupancy
    Mo0     Mo   0.85767   0.33014   0.15802   1.000
    S1      S    0.02556   0.24819   0.22636   1.000
    S2      S    0.02485   0.24579   0.09048   1.000
    Mo3     Mo   0.02870   0.58177   0.15992   1.000
    S4      S    0.85381   0.49652   0.22330   1.000
    S5      S    0.86120   0.49940   0.09052   1.000
    Mo6     Mo   0.85825   0.83071   0.15979   1.000
    S7      S    0.02609   0.74863   0.22819   1.000
    S8      S    0.02641   0.74889   0.09228   1.000
    Mo9     Mo   0.02564   0.08039   0.15964   1.000
    S10     S    0.85707   0.99844   0.22784   1.000
    S11     S    0.85751   0.99773   0.09182   1.000
    Mo12    Mo   0.52228   0.33915   0.15724   1.000
    S13     S    0.68626   0.25438   0.22622   1.000
    S14     S    0.68812   0.24829   0.09047   1.000
    Mo15    Mo   0.68986   0.57905   0.15611   1.000
    S16     S    0.52570   0.50026   0.08816   1.000
    Mo17    Mo   0.52503   0.82940   0.15919   1.000
    S18     S    0.68849   0.74209   0.22624   1.000
    S19     S    0.69252   0.74821   0.09042   1.000
    Mo20    Mo   0.69035   0.08234   0.15961   1.000
    S21     S    0.52501   0.99719   0.22752   1.000
    S22     S    0.52485   0.99775   0.09181   1.000
    Mo23    Mo   0.19246   0.33235   0.15796   1.000
    S24     S    0.36054   0.25532   0.22657   1.000
    S25     S    0.36086   0.24827   0.09030   1.000
    Mo26    Mo   0.36047   0.57544   0.15707   1.000
    S27     S    0.19971   0.49540   0.22730   1.000
    S28     S    0.19223   0.50005   0.08980   1.000
    Mo29    Mo   0.19338   0.83034   0.16024   1.000
    S30     S    0.36280   0.74003   0.22681   1.000
    S31     S    0.35828   0.74629   0.09109   1.000
    Mo32    Mo   0.35936   0.08257   0.15972   1.000
    S33     S    0.19374   0.99840   0.22808   1.000
    S34     S    0.19329   0.99688   0.09196   1.000
    H35     H    0.87452   0.48305   0.28248   1.000
    H36     H    0.51425   0.51630   0.17865   1.000
