# CIF file generated by openbabel 2.4.1, see http://openbabel.sf.net
data_I
_chemical_name_common ''
_cell_length_a 9.45679
_cell_length_b 10.9289
_cell_length_c 23
_cell_angle_alpha 90
_cell_angle_beta 90
_cell_angle_gamma 90
_space_group_name_H-M_alt 'P 1'
_space_group_name_Hall 'P 1'
loop_
    _symmetry_equiv_pos_as_xyz
    x,y,z
loop_
    _atom_site_label
    _atom_site_type_symbol
    _atom_site_fract_x
    _atom_site_fract_y
    _atom_site_fract_z
    _atom_site_occupancy
    Mo0     Mo   0.89882   0.35694   0.16008   1.000
    S1      S    0.07541   0.29134   0.22831   1.000
    S2      S    0.07541   0.28960   0.09221   1.000
    Mo3     Mo   0.03142   0.62174   0.15931   1.000
    S4      S    0.87683   0.52347   0.22761   1.000
    S5      S    0.87683   0.52183   0.09161   1.000
    Mo6     Mo   0.83294   0.85361   0.15865   1.000
    S7      S    0.00954   0.78800   0.22687   1.000
    S8      S    0.00943   0.78635   0.09083   1.000
    Mo9     Mo   0.96555   0.11841   0.15791   1.000
    S10     S    0.81095   0.02023   0.22618   1.000
    S11     S    0.81095   0.01849   0.09018   1.000
    Mo12    Mo   0.56774   0.32400   0.16018   1.000
    S13     S    0.74433   0.25849   0.22839   1.000
    S14     S    0.74433   0.25675   0.09231   1.000
    Mo15    Mo   0.70034   0.58880   0.15943   1.000
    S16     S    0.54574   0.48889   0.09170   1.000
    Mo17    Mo   0.50175   0.82067   0.15874   1.000
    S18     S    0.67834   0.75515   0.22700   1.000
    S19     S    0.67834   0.75341   0.09091   1.000
    Mo20    Mo   0.63435   0.08547   0.15800   1.000
    S21     S    0.47976   0.98729   0.22626   1.000
    S22     S    0.47976   0.98555   0.09030   1.000
    Mo23    Mo   0.23655   0.29106   0.16026   1.000
    S24     S    0.41303   0.22555   0.22848   1.000
    S25     S    0.41303   0.22381   0.09243   1.000
    Mo26    Mo   0.36904   0.55586   0.15952   1.000
    S27     S    0.21455   0.45768   0.22778   1.000
    S28     S    0.21444   0.45595   0.09178   1.000
    Mo29    Mo   0.17056   0.78782   0.15887   1.000
    S30     S    0.34715   0.72221   0.22709   1.000
    S31     S    0.34715   0.72047   0.09100   1.000
    Mo32    Mo   0.30316   0.05262   0.15809   1.000
    S33     S    0.14857   0.95435   0.22639   1.000
    S34     S    0.14857   0.95261   0.09039   1.000
    H35     H    0.90846   0.51462   0.26528   1.000
